* Simple Level-1 NMOS matching IRF540 DC characteristics (without internal Cbd)
.model simple_nmos nmos (level=1 vto=3.5 kp=21u gamma=0 lambda=0.01)
